  
       XFOIL         Version 6.99
  
 Calculated polar for: HORSTMANN AND QUAST HQ-17/14.38 AIRFOIL (MEASURE
  
 1 1 Reynolds number fixed          Mach number fixed         
  
 xtrf =   1.000 (top)        1.000 (bottom)  
 Mach =   0.000     Re =     0.010 e 6     Ncrit =   9.000
  
   alpha    CL        CD       CDp       CM     Top_Xtr  Bot_Xtr
  ------ -------- --------- --------- -------- -------- --------
